$*$$$$$$$$$$$$$$$$$$$$$$$$$$$$$$$$$$$$$$$$$$$$$$$$$$$$$$$$$$$$$$$$$
$*
$*                    NX v10.0.0.24 TRANSLATOR
$*                    FOR NX NASTRAN VERSION 10.0
$*
$*             FEM FILE: C:\Users\ado\Desktop\Tappered_Cylinder\Tappered_Cylinder_fem1.fem
$*             SIM FILE: C:\Users\ado\Desktop\Tappered_Cylinder\Tappered_Cylinder_sim1.sim
$*        ANALYSIS TYPE: Structural
$*        SOLUTION NAME: Solution 2
$*        SOLUTION TYPE: SOL 101 Linear Statics - Global Constraints
$*
$*    SOLVER INPUT FILE: tappered_cylinder_sim1-solution_2.dat
$*        CREATION DATE: 11-Jul-2016
$*        CREATION TIME: 12:22:22
$*             HOSTNAME: DESKTOP-5UE3P8V
$*      NASTRAN LICENSE: Desktop Bundle
$*
$*                UNITS: mm (milli-newton)
$*                      ... LENGTH : mm
$*                      ... TIME   : sec
$*                      ... MASS   : kilogram (kg)
$*                      ... TEMPERATURE : deg Celsius
$*                      ... FORCE  : milli-newton
$*                      ... THERMAL ENERGY : mN-mm (micro-joule)
$*
$* IMPORTANT NOTE:
$*     This banner was generated by NX and altering this information
$*     may compromise the NX post processing of results.
$*
$*$$$$$$$$$$$$$$$$$$$$$$$$$$$$$$$$$$$$$$$$$$$$$$$$$$$$$$$$$$$$$$$$$
$*
$*$$$$$$$$$$$$$$$$$$$$$$$$$$$$$$$$$$$
$*
$* FILE MANAGEMENT
$*
$*$$$$$$$$$$$$$$$$$$$$$$$$$$$$$$$$$$$
$*
$*
$*$$$$$$$$$$$$$$$$$$$$$$$$$$$$$$$$$$$
$*
$* EXECUTIVE CONTROL
$*
$*$$$$$$$$$$$$$$$$$$$$$$$$$$$$$$$$$$$
$*
ID,NASTRAN,tappered_cylinder_sim1-solution_2
SOL 101
CEND
$*
$*$$$$$$$$$$$$$$$$$$$$$$$$$$$$$$$$$$$
$*
$* CASE CONTROL
$*
$*$$$$$$$$$$$$$$$$$$$$$$$$$$$$$$$$$$$
$*
ECHO = NONE
SPC = 1
OUTPUT
DISPLACEMENT(PLOT,REAL) = ALL
SPCFORCES(PLOT,REAL) = ALL
STRESS(PLOT,REAL,VONMISES,CENTER) = ALL
$*  NX Step: Subcase - Static Loads 1
SUBCASE 1
LABEL = Subcase - Static Loads 1
LOAD = 2
$*
$*$$$$$$$$$$$$$$$$$$$$$$$$$$$$$$$$$$$
$*
$* BULK DATA
$*
$*$$$$$$$$$$$$$$$$$$$$$$$$$$$$$$$$$$$
$*
BEGIN BULK
$*
$* PARAM CARDS
$*
$PARAM,NAME,VALUE
PARAM,K6ROT,100.0
PARAM,OIBULK,YES
PARAM,OMACHPR,YES
PARAM,POST,-2
PARAM,POSTEXT,YES
PARAM,UNITSYS,MN-MM
$*
$* GRID CARDS
$*
$GRID,NID,CP,X1,X2,X3,CD
GRID,1,0,20670.39,10643.97,18999.6,0
GRID,2,0,18703.51,978.0094,18999.4,0
GRID,3,0,13461.77,-9638.01,18999.57,0
GRID,4,0,5445.347,-18178.9,18999.4,0
GRID,5,0,-2715.82,-23332.2,18999.6,0
GRID,6,0,-10885.3,-17646.7,18999.4,0
GRID,7,0,-18445.9,-8785.4,18999.57,0
GRID,8,0,-21685.8,1611.096,18999.39,0
GRID,9,0,-17983.6,11638.68,18999.57,0
GRID,10,0,-9949.62,18740.28,18999.39,0
GRID,11,0,1013.218,19597.32,18999.57,0
GRID,12,0,12108.51,15993.94,18999.4,0
GRID,13,0,8358.535,6102.511,18999.44,0
GRID,14,0,3321.46,-2917.66,18999.49,0
GRID,15,0,-3219.86,-10705.8,18999.44,0
GRID,16,0,-10364.1,-4001.38,18999.49,0
GRID,17,0,-14724.9,1441.125,18999.46,0
GRID,18,0,-11367.2,7009.517,18999.5,0
GRID,19,0,-7332.92,12225.38,18999.46,0
GRID,20,0,-638.912,10177.76,18999.49,0
$ ... 343 like lines cut
$*
$* ELEMENT CARDS
$*
$*  NX Mesh Collector: MCONE
$*  NX Mesh: 3d_mesh(1)
$CHEXA,EID,PID,G1,G2,G3,G4,G5,G6
CHEXA,1,1,191,350,363,190,2,330,+
$,G7,G8
+,339,1
CHEXA,2,1,2,330,339,1,23,319,+
+,338,22
CHEXA,3,1,23,319,338,22,44,308,+
+,337,43
CHEXA,4,1,44,308,337,43,65,297,+
+,336,64
CHEXA,5,1,65,297,336,64,86,286,+
+,335,85
CHEXA,6,1,86,286,335,85,107,275,+
+,334,106
CHEXA,7,1,107,275,334,106,128,264,+
+,333,127
CHEXA,8,1,128,264,333,127,149,253,+
+,332,148
CHEXA,9,1,149,253,332,148,170,242,+
+,331,169
CHEXA,10,1,170,242,331,169,212,361,+
+,362,211
CHEXA,11,1,192,349,350,191,3,329,+
+,330,2
CHEXA,12,1,3,329,330,2,24,318,+
+,319,23
CHEXA,13,1,24,318,319,23,45,307,+
+,308,44
CHEXA,14,1,45,307,308,44,66,296,+
+,297,65
CHEXA,15,1,66,296,297,65,87,285,+
+,286,86
CHEXA,16,1,87,285,286,86,108,274,+
+,275,107
CHEXA,17,1,108,274,275,107,129,263,+
+,264,128
CHEXA,18,1,129,263,264,128,150,252,+
+,253,149
CHEXA,19,1,150,252,253,149,171,241,+
+,242,170
CHEXA,20,1,171,241,242,170,213,360,+
+,361,212
CHEXA,21,1,193,348,349,192,4,328,+
$ ... 479 like lines cut
$*
$* PROPERTY CARDS
$*
$*  NX Property: PCONE
$PSOLID,PID,MID,CORDM,IN,STRESS,ISOP,FCTN
PSOLID,1,2,0,,,,SMECH
$*
$* MATERIAL CARDS
$*
$*  NX Material: MAT1
$MAT1,MID,E,G,NU,RHO
MAT1,2,2.0E8,,.3,8000.0
$*
$* LOAD AND CONSTRAINT CARDS
$*
$*  NX Load and Constraint: UserDefined(1)
$SPC,SID,G1,C1,D1
SPC,1,190,123456,0.0
SPC,1,191,123456,0.0
SPC,1,192,123456,0.0
SPC,1,193,123456,0.0
SPC,1,194,123456,0.0
SPC,1,195,123456,0.0
SPC,1,196,123456,0.0
SPC,1,197,123456,0.0
SPC,1,198,123456,0.0
SPC,1,199,123456,0.0
SPC,1,200,123456,0.0
SPC,1,201,123456,0.0
SPC,1,202,123456,0.0
SPC,1,203,123456,0.0
SPC,1,204,123456,0.0
SPC,1,205,123456,0.0
SPC,1,206,123456,0.0
SPC,1,207,123456,0.0
SPC,1,208,123456,0.0
SPC,1,209,123456,0.0
$ ... 13 like lines cut
$*  NX Load and Constraint: Force(1)
$FORCE,SID,G,CID,F,N1,N2,N3
FORCE,2,211,0,3.37E11,-1.0,0.0,0.0
FORCE,2,212,0,5.083E11,-1.0,0.0,0.0
FORCE,2,213,0,5.71E11,-1.0,0.0,0.0
FORCE,2,214,0,4.727E11,-1.0,0.0,0.0
FORCE,2,215,0,3.023E11,-1.0,0.0,0.0
FORCE,2,216,0,3.896E11,-1.0,0.0,0.0
FORCE,2,217,0,3.709E11,-1.0,0.0,0.0
FORCE,2,218,0,3.176E11,-1.0,0.0,0.0
FORCE,2,219,0,3.127E11,-1.0,0.0,0.0
FORCE,2,220,0,3.395E11,-1.0,0.0,0.0
FORCE,2,221,0,4.034E11,-1.0,0.0,0.0
FORCE,2,222,0,4.244E11,-1.0,0.0,0.0
FORCE,2,223,0,3.283E11,-1.0,0.0,0.0
FORCE,2,224,0,3.327E11,-1.0,0.0,0.0
FORCE,2,225,0,3.13E11,-1.0,0.0,0.0
FORCE,2,226,0,2.21E11,-1.0,0.0,0.0
FORCE,2,227,0,1.218E11,-1.0,0.0,0.0
FORCE,2,228,0,1.516E11,-1.0,0.0,0.0
FORCE,2,229,0,1.244E11,-1.0,0.0,0.0
FORCE,2,230,0,2.301E11,-1.0,0.0,0.0
$ ... 13 like lines cut
ENDDATA 42dcfa93
